LTspice 24.0.12 for Windows
Circuit: * C:\Users\pss826\OneDrive - Bangor University\Documents\GitHub\PICDIV_Board_v3\Vref.asc
Start Time: Mon Dec  2 15:29:37 2024
solver = Normal
Maximum thread count: 12



Direct Newton iteration for .op point succeeded.

































































































































































































































































































































































































































































































































































































































































































































































































































































































































tnom = 27
temp = 27
method = modified trap
Total elapsed time: 1.473 seconds.

